# Makefile.in generated by automake 1.11.1 from Makefile.am.
# @configure_input@

# Copyright (C) 1994, 1995, 1996, 1997, 1998, 1999, 2000, 2001, 2002,
# 2003, 2004, 2005, 2006, 2007, 2008, 2009  Free Software Foundation,
# Inc.
# This Makefile.in is free software; the Free Software Foundation
# gives unlimited permission to copy and/or distribute it,
# with or without modifications, as long as this notice is preserved.

# This program is distributed in the hope that it will be useful,
# but WITHOUT ANY WARRANTY, to the extent permitted by law; without
# even the implied warranty of MERCHANTABILITY or FITNESS FOR A
# PARTICULAR PURPOSE.

@SET_MAKE@

#-------------------------------------------------------------------------------

# This file is part of Code_Saturne, a general-purpose CFD tool.
#
# Copyright (C) 1998-2016 EDF S.A.
#
# This program is free software; you can redistribute it and/or modify it under
# the terms of the GNU General Public License as published by the Free Software
# Foundation; either version 2 of the License, or (at your option) any later
# version.
#
# This program is distributed in the hope that it will be useful, but WITHOUT
# ANY WARRANTY; without even the implied warranty of MERCHANTABILITY or FITNESS
# FOR A PARTICULAR PURPOSE.  See the GNU General Public License for more
# details.
#
# You should have received a copy of the GNU General Public License along with
# this program; if not, write to the Free Software Foundation, Inc., 51 Franklin
# Street, Fifth Floor, Boston, MA 02110-1301, USA.

#-------------------------------------------------------------------------------

# Main part


VPATH = @srcdir@
pkgdatadir = $(datadir)/@PACKAGE@
pkgincludedir = $(includedir)/@PACKAGE@
pkglibdir = $(libdir)/@PACKAGE@
pkglibexecdir = $(libexecdir)/@PACKAGE@
am__cd = CDPATH="$${ZSH_VERSION+.}$(PATH_SEPARATOR)" && cd
install_sh_DATA = $(install_sh) -c -m 644
install_sh_PROGRAM = $(install_sh) -c
install_sh_SCRIPT = $(install_sh) -c
INSTALL_HEADER = $(INSTALL_DATA)
transform = $(program_transform_name)
NORMAL_INSTALL = :
PRE_INSTALL = :
POST_INSTALL = :
NORMAL_UNINSTALL = :
PRE_UNINSTALL = :
POST_UNINSTALL = :
build_triplet = @build@
host_triplet = @host@
target_triplet = @target@
@HAVE_CCM_TRUE@am__append_1 = libfvm_ccm.la
@HAVE_CCM_TRUE@am__append_2 = libfvm_ccm.la
@HAVE_CGNS_TRUE@am__append_3 = libfvm_cgns.la
@HAVE_CGNS_TRUE@am__append_4 = libfvm_cgns.la
@HAVE_MED_TRUE@am__append_5 = libfvm_med.la
@HAVE_MED_TRUE@am__append_6 = libfvm_med.la
@HAVE_MEDCOUPLING_TRUE@am__append_7 = fvm_medcoupling.la
@HAVE_CATALYST_TRUE@@HAVE_PLUGINS_TRUE@am__append_8 = fvm_catalyst.la
@HAVE_CATALYST_TRUE@@HAVE_PLUGINS_FALSE@am__append_9 = libfvm_catalyst.la
@HAVE_CATALYST_TRUE@@HAVE_PLUGINS_FALSE@am__append_10 = libfvm_catalyst.la
subdir = src/fvm
DIST_COMMON = $(noinst_HEADERS) $(pkginclude_HEADERS) \
	$(srcdir)/Makefile.am $(srcdir)/Makefile.in
ACLOCAL_M4 = $(top_srcdir)/aclocal.m4
am__aclocal_m4_deps = $(top_srcdir)/m4/acx_pthread.m4 \
	$(top_srcdir)/m4/cs_blas.m4 $(top_srcdir)/m4/cs_catalyst.m4 \
	$(top_srcdir)/m4/cs_ccm.m4 $(top_srcdir)/m4/cs_cgns.m4 \
	$(top_srcdir)/m4/cs_coolprop.m4 $(top_srcdir)/m4/cs_docs.m4 \
	$(top_srcdir)/m4/cs_eos.m4 $(top_srcdir)/m4/cs_fortran.m4 \
	$(top_srcdir)/m4/cs_freesteam.m4 $(top_srcdir)/m4/cs_hdf5.m4 \
	$(top_srcdir)/m4/cs_libxml2.m4 $(top_srcdir)/m4/cs_med.m4 \
	$(top_srcdir)/m4/cs_metis.m4 $(top_srcdir)/m4/cs_modules.m4 \
	$(top_srcdir)/m4/cs_mpi.m4 $(top_srcdir)/m4/cs_omniorb.m4 \
	$(top_srcdir)/m4/cs_petsc.m4 $(top_srcdir)/m4/cs_ple.m4 \
	$(top_srcdir)/m4/cs_salome.m4 $(top_srcdir)/m4/cs_scotch.m4 \
	$(top_srcdir)/m4/cs_zlib.m4 $(top_srcdir)/m4/gettext.m4 \
	$(top_srcdir)/m4/iconv.m4 $(top_srcdir)/m4/intlmacosx.m4 \
	$(top_srcdir)/m4/lib-ld.m4 $(top_srcdir)/m4/lib-link.m4 \
	$(top_srcdir)/m4/lib-prefix.m4 $(top_srcdir)/m4/libtool.m4 \
	$(top_srcdir)/m4/ltoptions.m4 $(top_srcdir)/m4/ltsugar.m4 \
	$(top_srcdir)/m4/ltversion.m4 $(top_srcdir)/m4/lt~obsolete.m4 \
	$(top_srcdir)/m4/nls.m4 $(top_srcdir)/m4/po.m4 \
	$(top_srcdir)/m4/progtest.m4 $(top_srcdir)/configure.ac
am__configure_deps = $(am__aclocal_m4_deps) $(CONFIGURE_DEPENDENCIES) \
	$(ACLOCAL_M4)
mkinstalldirs = $(install_sh) -d
CONFIG_HEADER = $(top_builddir)/cs_config.h
CONFIG_CLEAN_FILES =
CONFIG_CLEAN_VPATH_FILES =
am__vpath_adj_setup = srcdirstrip=`echo "$(srcdir)" | sed 's|.|.|g'`;
am__vpath_adj = case $$p in \
    $(srcdir)/*) f=`echo "$$p" | sed "s|^$$srcdirstrip/||"`;; \
    *) f=$$p;; \
  esac;
am__strip_dir = f=`echo $$p | sed -e 's|^.*/||'`;
am__install_max = 40
am__nobase_strip_setup = \
  srcdirstrip=`echo "$(srcdir)" | sed 's/[].[^$$\\*|]/\\\\&/g'`
am__nobase_strip = \
  for p in $$list; do echo "$$p"; done | sed -e "s|$$srcdirstrip/||"
am__nobase_list = $(am__nobase_strip_setup); \
  for p in $$list; do echo "$$p $$p"; done | \
  sed "s| $$srcdirstrip/| |;"' / .*\//!s/ .*/ ./; s,\( .*\)/[^/]*$$,\1,' | \
  $(AWK) 'BEGIN { files["."] = "" } { files[$$2] = files[$$2] " " $$1; \
    if (++n[$$2] == $(am__install_max)) \
      { print $$2, files[$$2]; n[$$2] = 0; files[$$2] = "" } } \
    END { for (dir in files) print dir, files[dir] }'
am__base_list = \
  sed '$$!N;$$!N;$$!N;$$!N;$$!N;$$!N;$$!N;s/\n/ /g' | \
  sed '$$!N;$$!N;$$!N;$$!N;s/\n/ /g'
am__installdirs = "$(DESTDIR)$(libdir)" "$(DESTDIR)$(pkglibdir)" \
	"$(DESTDIR)$(pkgincludedir)"
LTLIBRARIES = $(lib_LTLIBRARIES) $(noinst_LTLIBRARIES) \
	$(pkglib_LTLIBRARIES)
am__DEPENDENCIES_1 =
@HAVE_CATALYST_TRUE@@HAVE_PLUGINS_TRUE@fvm_catalyst_la_DEPENDENCIES =  \
@HAVE_CATALYST_TRUE@@HAVE_PLUGINS_TRUE@	$(am__DEPENDENCIES_1) \
@HAVE_CATALYST_TRUE@@HAVE_PLUGINS_TRUE@	$(am__DEPENDENCIES_1) \
@HAVE_CATALYST_TRUE@@HAVE_PLUGINS_TRUE@	$(am__DEPENDENCIES_1)
am__fvm_catalyst_la_SOURCES_DIST = fvm_to_catalyst.cxx
@HAVE_CATALYST_TRUE@@HAVE_PLUGINS_TRUE@am_fvm_catalyst_la_OBJECTS = fvm_catalyst_la-fvm_to_catalyst.lo
fvm_catalyst_la_OBJECTS = $(am_fvm_catalyst_la_OBJECTS)
AM_V_lt = $(am__v_lt_$(V))
am__v_lt_ = $(am__v_lt_$(AM_DEFAULT_VERBOSITY))
am__v_lt_0 = --silent
fvm_catalyst_la_LINK = $(LIBTOOL) $(AM_V_lt) --tag=CXX \
	$(AM_LIBTOOLFLAGS) $(LIBTOOLFLAGS) --mode=link $(CXXLD) \
	$(AM_CXXFLAGS) $(CXXFLAGS) $(fvm_catalyst_la_LDFLAGS) \
	$(LDFLAGS) -o $@
@HAVE_CATALYST_TRUE@@HAVE_PLUGINS_TRUE@am_fvm_catalyst_la_rpath =  \
@HAVE_CATALYST_TRUE@@HAVE_PLUGINS_TRUE@	-rpath $(pkglibdir)
@HAVE_MEDCOUPLING_TRUE@fvm_medcoupling_la_DEPENDENCIES =  \
@HAVE_MEDCOUPLING_TRUE@	$(am__DEPENDENCIES_1) \
@HAVE_MEDCOUPLING_TRUE@	$(am__DEPENDENCIES_1) \
@HAVE_MEDCOUPLING_TRUE@	$(am__DEPENDENCIES_1)
am__fvm_medcoupling_la_SOURCES_DIST = fvm_to_medcoupling.cxx
@HAVE_MEDCOUPLING_TRUE@am_fvm_medcoupling_la_OBJECTS = fvm_medcoupling_la-fvm_to_medcoupling.lo
fvm_medcoupling_la_OBJECTS = $(am_fvm_medcoupling_la_OBJECTS)
fvm_medcoupling_la_LINK = $(LIBTOOL) $(AM_V_lt) --tag=CXX \
	$(AM_LIBTOOLFLAGS) $(LIBTOOLFLAGS) --mode=link $(CXXLD) \
	$(AM_CXXFLAGS) $(CXXFLAGS) $(fvm_medcoupling_la_LDFLAGS) \
	$(LDFLAGS) -o $@
@HAVE_MEDCOUPLING_TRUE@am_fvm_medcoupling_la_rpath = -rpath \
@HAVE_MEDCOUPLING_TRUE@	$(pkglibdir)
libfvm_la_DEPENDENCIES = $(am__DEPENDENCIES_1)
am_libfvm_la_OBJECTS = fvm_box.lo fvm_box_tree.lo fvm_convert_array.lo \
	fvm_defs.lo fvm_group.lo fvm_hilbert.lo fvm_io_num.lo \
	fvm_morton.lo fvm_neighborhood.lo fvm_nodal.lo \
	fvm_nodal_append.lo fvm_nodal_extrude.lo \
	fvm_nodal_from_desc.lo fvm_nodal_order.lo fvm_nodal_project.lo \
	fvm_nodal_triangulate.lo fvm_nodal_extract.lo \
	fvm_periodicity.lo fvm_point_location.lo fvm_selector.lo \
	fvm_selector_postfix.lo fvm_tesselation.lo fvm_trace.lo \
	fvm_triangulate.lo
libfvm_la_OBJECTS = $(am_libfvm_la_OBJECTS)
libfvm_la_LINK = $(LIBTOOL) $(AM_V_lt) --tag=CC $(AM_LIBTOOLFLAGS) \
	$(LIBTOOLFLAGS) --mode=link $(CCLD) $(AM_CFLAGS) $(CFLAGS) \
	$(libfvm_la_LDFLAGS) $(LDFLAGS) -o $@
@HAVE_CATALYST_TRUE@@HAVE_PLUGINS_FALSE@libfvm_catalyst_la_DEPENDENCIES =  \
@HAVE_CATALYST_TRUE@@HAVE_PLUGINS_FALSE@	$(am__DEPENDENCIES_1) \
@HAVE_CATALYST_TRUE@@HAVE_PLUGINS_FALSE@	$(am__DEPENDENCIES_1) \
@HAVE_CATALYST_TRUE@@HAVE_PLUGINS_FALSE@	$(am__DEPENDENCIES_1)
am__libfvm_catalyst_la_SOURCES_DIST = fvm_to_catalyst.cxx
@HAVE_CATALYST_TRUE@@HAVE_PLUGINS_FALSE@am_libfvm_catalyst_la_OBJECTS = libfvm_catalyst_la-fvm_to_catalyst.lo
libfvm_catalyst_la_OBJECTS = $(am_libfvm_catalyst_la_OBJECTS)
@HAVE_CATALYST_TRUE@@HAVE_PLUGINS_FALSE@am_libfvm_catalyst_la_rpath =
libfvm_ccm_la_LIBADD =
am__libfvm_ccm_la_SOURCES_DIST = fvm_to_ccm.c
@HAVE_CCM_TRUE@am_libfvm_ccm_la_OBJECTS = libfvm_ccm_la-fvm_to_ccm.lo
libfvm_ccm_la_OBJECTS = $(am_libfvm_ccm_la_OBJECTS)
@HAVE_CCM_TRUE@am_libfvm_ccm_la_rpath =
libfvm_cgns_la_LIBADD =
am__libfvm_cgns_la_SOURCES_DIST = fvm_to_cgns.c
@HAVE_CGNS_TRUE@am_libfvm_cgns_la_OBJECTS =  \
@HAVE_CGNS_TRUE@	libfvm_cgns_la-fvm_to_cgns.lo
libfvm_cgns_la_OBJECTS = $(am_libfvm_cgns_la_OBJECTS)
@HAVE_CGNS_TRUE@am_libfvm_cgns_la_rpath =
libfvm_filters_la_DEPENDENCIES = $(am__append_2) $(am__append_4) \
	$(am__append_6) $(am__append_10)
am_libfvm_filters_la_OBJECTS = fvm_to_ensight.lo fvm_to_melissa.lo \
	fvm_to_ensight_case.lo fvm_writer.lo fvm_writer_helper.lo
libfvm_filters_la_OBJECTS = $(am_libfvm_filters_la_OBJECTS)
libfvm_filters_la_LINK = $(LIBTOOL) $(AM_V_lt) --tag=CC \
	$(AM_LIBTOOLFLAGS) $(LIBTOOLFLAGS) --mode=link $(CCLD) \
	$(AM_CFLAGS) $(CFLAGS) $(libfvm_filters_la_LDFLAGS) $(LDFLAGS) \
	-o $@
libfvm_med_la_LIBADD =
am__libfvm_med_la_SOURCES_DIST = fvm_to_med.c
@HAVE_MED_TRUE@am_libfvm_med_la_OBJECTS = libfvm_med_la-fvm_to_med.lo
libfvm_med_la_OBJECTS = $(am_libfvm_med_la_OBJECTS)
@HAVE_MED_TRUE@am_libfvm_med_la_rpath =
DEFAULT_INCLUDES = -I.@am__isrc@ -I$(top_builddir)
depcomp = $(SHELL) $(top_srcdir)/build-aux/depcomp
am__depfiles_maybe = depfiles
am__mv = mv -f
COMPILE = $(CC) $(DEFS) $(DEFAULT_INCLUDES) $(INCLUDES) $(AM_CPPFLAGS) \
	$(CPPFLAGS) $(AM_CFLAGS) $(CFLAGS)
LTCOMPILE = $(LIBTOOL) $(AM_V_lt) --tag=CC $(AM_LIBTOOLFLAGS) \
	$(LIBTOOLFLAGS) --mode=compile $(CC) $(DEFS) \
	$(DEFAULT_INCLUDES) $(INCLUDES) $(AM_CPPFLAGS) $(CPPFLAGS) \
	$(AM_CFLAGS) $(CFLAGS)
AM_V_CC = $(am__v_CC_$(V))
am__v_CC_ = $(am__v_CC_$(AM_DEFAULT_VERBOSITY))
am__v_CC_0 = @echo "  CC    " $@;
AM_V_at = $(am__v_at_$(V))
am__v_at_ = $(am__v_at_$(AM_DEFAULT_VERBOSITY))
am__v_at_0 = @
CCLD = $(CC)
LINK = $(LIBTOOL) $(AM_V_lt) --tag=CC $(AM_LIBTOOLFLAGS) \
	$(LIBTOOLFLAGS) --mode=link $(CCLD) $(AM_CFLAGS) $(CFLAGS) \
	$(AM_LDFLAGS) $(LDFLAGS) -o $@
AM_V_CCLD = $(am__v_CCLD_$(V))
am__v_CCLD_ = $(am__v_CCLD_$(AM_DEFAULT_VERBOSITY))
am__v_CCLD_0 = @echo "  CCLD  " $@;
CXXCOMPILE = $(CXX) $(DEFS) $(DEFAULT_INCLUDES) $(INCLUDES) \
	$(AM_CPPFLAGS) $(CPPFLAGS) $(AM_CXXFLAGS) $(CXXFLAGS)
LTCXXCOMPILE = $(LIBTOOL) $(AM_V_lt) --tag=CXX $(AM_LIBTOOLFLAGS) \
	$(LIBTOOLFLAGS) --mode=compile $(CXX) $(DEFS) \
	$(DEFAULT_INCLUDES) $(INCLUDES) $(AM_CPPFLAGS) $(CPPFLAGS) \
	$(AM_CXXFLAGS) $(CXXFLAGS)
AM_V_CXX = $(am__v_CXX_$(V))
am__v_CXX_ = $(am__v_CXX_$(AM_DEFAULT_VERBOSITY))
am__v_CXX_0 = @echo "  CXX   " $@;
CXXLD = $(CXX)
CXXLINK = $(LIBTOOL) $(AM_V_lt) --tag=CXX $(AM_LIBTOOLFLAGS) \
	$(LIBTOOLFLAGS) --mode=link $(CXXLD) $(AM_CXXFLAGS) \
	$(CXXFLAGS) $(AM_LDFLAGS) $(LDFLAGS) -o $@
AM_V_CXXLD = $(am__v_CXXLD_$(V))
am__v_CXXLD_ = $(am__v_CXXLD_$(AM_DEFAULT_VERBOSITY))
am__v_CXXLD_0 = @echo "  CXXLD " $@;
AM_V_GEN = $(am__v_GEN_$(V))
am__v_GEN_ = $(am__v_GEN_$(AM_DEFAULT_VERBOSITY))
am__v_GEN_0 = @echo "  GEN   " $@;
SOURCES = $(fvm_catalyst_la_SOURCES) $(fvm_medcoupling_la_SOURCES) \
	$(libfvm_la_SOURCES) $(libfvm_catalyst_la_SOURCES) \
	$(libfvm_ccm_la_SOURCES) $(libfvm_cgns_la_SOURCES) \
	$(libfvm_filters_la_SOURCES) $(libfvm_med_la_SOURCES)
DIST_SOURCES = $(am__fvm_catalyst_la_SOURCES_DIST) \
	$(am__fvm_medcoupling_la_SOURCES_DIST) $(libfvm_la_SOURCES) \
	$(am__libfvm_catalyst_la_SOURCES_DIST) \
	$(am__libfvm_ccm_la_SOURCES_DIST) \
	$(am__libfvm_cgns_la_SOURCES_DIST) \
	$(libfvm_filters_la_SOURCES) $(am__libfvm_med_la_SOURCES_DIST)
HEADERS = $(noinst_HEADERS) $(pkginclude_HEADERS)
ETAGS = etags
CTAGS = ctags
DISTFILES = $(DIST_COMMON) $(DIST_SOURCES) $(TEXINFOS) $(EXTRA_DIST)
ACLOCAL = @ACLOCAL@
AMTAR = @AMTAR@
AM_DEFAULT_VERBOSITY = @AM_DEFAULT_VERBOSITY@
AR = @AR@
AS = @AS@
AUTOCONF = @AUTOCONF@
AUTOHEADER = @AUTOHEADER@
AUTOMAKE = @AUTOMAKE@
AWK = @AWK@
BIBTEX = @BIBTEX@
BLASRUNPATH = @BLASRUNPATH@
BLAS_CPPFLAGS = @BLAS_CPPFLAGS@
BLAS_LDFLAGS = @BLAS_LDFLAGS@
BLAS_LIBS = @BLAS_LIBS@
CALCIUM_LIBS = @CALCIUM_LIBS@
CATALYSTRUNPATH = @CATALYSTRUNPATH@
CATALYST_CPPFLAGS = @CATALYST_CPPFLAGS@
CATALYST_CXXFLAGS = @CATALYST_CXXFLAGS@
CATALYST_LDFLAGS = @CATALYST_LDFLAGS@
CATALYST_LIBS = @CATALYST_LIBS@
CC = @CC@
CCDEPMODE = @CCDEPMODE@
CCMRUNPATH = @CCMRUNPATH@
CCM_CPPFLAGS = @CCM_CPPFLAGS@
CCM_LDFLAGS = @CCM_LDFLAGS@
CCM_LIBS = @CCM_LIBS@
CFLAGS = @CFLAGS@
CFLAGS_DBG = @CFLAGS_DBG@
CFLAGS_HOT = @CFLAGS_HOT@
CFLAGS_OPT = @CFLAGS_OPT@
CGNSRUNPATH = @CGNSRUNPATH@
CGNS_CPPFLAGS = @CGNS_CPPFLAGS@
CGNS_LDFLAGS = @CGNS_LDFLAGS@
CGNS_LIBS = @CGNS_LIBS@
CMAKE = @CMAKE@
COOLPROPPYTHONPATH = @COOLPROPPYTHONPATH@
COOLPROPRUNPATH = @COOLPROPRUNPATH@
COOLPROP_CPPFLAGS = @COOLPROP_CPPFLAGS@
COOLPROP_LDFLAGS = @COOLPROP_LDFLAGS@
COOLPROP_LIBS = @COOLPROP_LIBS@
CORBA_CXXFLAGS = @CORBA_CXXFLAGS@
CORBA_INCLUDES = @CORBA_INCLUDES@
CORBA_LIBS = @CORBA_LIBS@
CORBA_ROOT = @CORBA_ROOT@
CPP = @CPP@
CPPFLAGS = @CPPFLAGS@
CS_LD = @CS_LD@
CXX = @CXX@
CXXCPP = @CXXCPP@
CXXDEPMODE = @CXXDEPMODE@
CXXFLAGS = @CXXFLAGS@
CXXFLAGS_DBG = @CXXFLAGS_DBG@
CXXFLAGS_HOT = @CXXFLAGS_HOT@
CXXFLAGS_OPT = @CXXFLAGS_OPT@
CYGPATH_W = @CYGPATH_W@
DEFS = @DEFS@
DEPDIR = @DEPDIR@
DLLTOOL = @DLLTOOL@
DOT = @DOT@
DOXYGEN = @DOXYGEN@
DSYMUTIL = @DSYMUTIL@
DUMPBIN = @DUMPBIN@
ECHO_C = @ECHO_C@
ECHO_N = @ECHO_N@
ECHO_T = @ECHO_T@
EGREP = @EGREP@
EOSRUNPATH = @EOSRUNPATH@
EOS_CPPFLAGS = @EOS_CPPFLAGS@
EOS_LDFLAGS = @EOS_LDFLAGS@
EOS_LIBS = @EOS_LIBS@
EXEEXT = @EXEEXT@
FC = @FC@
FCFLAGS = @FCFLAGS@
FCFLAGS_DBG = @FCFLAGS_DBG@
FCFLAGS_HOT = @FCFLAGS_HOT@
FCFLAGS_OPT = @FCFLAGS_OPT@
FCLIBS = @FCLIBS@
FCMODEXT = @FCMODEXT@
FCMODINCLUDE = @FCMODINCLUDE@
FGREP = @FGREP@
FIG2DEV = @FIG2DEV@
FREESTEAMRUNPATH = @FREESTEAMRUNPATH@
FREESTEAM_CPPFLAGS = @FREESTEAM_CPPFLAGS@
FREESTEAM_LDFLAGS = @FREESTEAM_LDFLAGS@
FREESTEAM_LIBS = @FREESTEAM_LIBS@
GETTEXT_MACRO_VERSION = @GETTEXT_MACRO_VERSION@
GMSGFMT = @GMSGFMT@
GMSGFMT_015 = @GMSGFMT_015@
GREP = @GREP@
HDF5RUNPATH = @HDF5RUNPATH@
HDF5_CPPFLAGS = @HDF5_CPPFLAGS@
HDF5_CPPFLAGS_MPI = @HDF5_CPPFLAGS_MPI@
HDF5_LDFLAGS = @HDF5_LDFLAGS@
HDF5_LDFLAGS_MPI = @HDF5_LDFLAGS_MPI@
HDF5_LIBS = @HDF5_LIBS@
HDF5_LIBS_MPI = @HDF5_LIBS_MPI@
IDL = @IDL@
IDLCXXFLAGS = @IDLCXXFLAGS@
IDLPYFLAGS = @IDLPYFLAGS@
IDL_CLN_CXX = @IDL_CLN_CXX@
IDL_CLN_H = @IDL_CLN_H@
IDL_CLN_OBJ = @IDL_CLN_OBJ@
IDL_SRV_CXX = @IDL_SRV_CXX@
IDL_SRV_H = @IDL_SRV_H@
IDL_SRV_OBJ = @IDL_SRV_OBJ@
INSTALL = @INSTALL@
INSTALL_DATA = @INSTALL_DATA@
INSTALL_PROGRAM = @INSTALL_PROGRAM@
INSTALL_SCRIPT = @INSTALL_SCRIPT@
INSTALL_STRIP_PROGRAM = @INSTALL_STRIP_PROGRAM@
INTLLIBS = @INTLLIBS@
INTL_MACOSX_LIBS = @INTL_MACOSX_LIBS@
LD = @LD@
LDFLAGS = @LDFLAGS@
LDRPATH = @LDRPATH@
LEX = @LEX@
LEXLIB = @LEXLIB@
LEX_OUTPUT_ROOT = @LEX_OUTPUT_ROOT@
LIBICONV = @LIBICONV@
LIBINTL = @LIBINTL@
LIBOBJS = @LIBOBJS@
LIBS = @LIBS@
LIBTOOL = @LIBTOOL@
LIBXML2_CPPFLAGS = @LIBXML2_CPPFLAGS@
LIBXML2_LDFLAGS = @LIBXML2_LDFLAGS@
LIBXML2_LIBS = @LIBXML2_LIBS@
LIPO = @LIPO@
LN_S = @LN_S@
LRELEASE = @LRELEASE@
LTLIBICONV = @LTLIBICONV@
LTLIBINTL = @LTLIBINTL@
LTLIBOBJS = @LTLIBOBJS@
MAINT = @MAINT@
MAKEINDEX = @MAKEINDEX@
MAKEINFO = @MAKEINFO@
MEDCOUPLINGRUNPATH = @MEDCOUPLINGRUNPATH@
MEDCOUPLING_CPPFLAGS = @MEDCOUPLING_CPPFLAGS@
MEDCOUPLING_LDFLAGS = @MEDCOUPLING_LDFLAGS@
MEDCOUPLING_LIBS = @MEDCOUPLING_LIBS@
MEDRUNPATH = @MEDRUNPATH@
MED_CPPFLAGS = @MED_CPPFLAGS@
MED_LDFLAGS = @MED_LDFLAGS@
MED_LIBS = @MED_LIBS@
METISRUNPATH = @METISRUNPATH@
METIS_CPPFLAGS = @METIS_CPPFLAGS@
METIS_LDFLAGS = @METIS_LDFLAGS@
METIS_LIBS = @METIS_LIBS@
MKDIR_P = @MKDIR_P@
MOC = @MOC@
MODULECMD = @MODULECMD@
MPI_CPPFLAGS = @MPI_CPPFLAGS@
MPI_LDFLAGS = @MPI_LDFLAGS@
MPI_LIBS = @MPI_LIBS@
MSGFMT = @MSGFMT@
MSGFMT_015 = @MSGFMT_015@
MSGMERGE = @MSGMERGE@
NM = @NM@
NMEDIT = @NMEDIT@
OBJDUMP = @OBJDUMP@
OBJEXT = @OBJEXT@
OMNIIDL = @OMNIIDL@
OMNIIDLLDLIBPATH = @OMNIIDLLDLIBPATH@
OMNIIDLPYBE = @OMNIIDLPYBE@
OMNIIDLPYTHONPATH = @OMNIIDLPYTHONPATH@
OMNIORB_CXXFLAGS = @OMNIORB_CXXFLAGS@
OMNIORB_IDLCXXFLAGS = @OMNIORB_IDLCXXFLAGS@
OMNIORB_IDLPYFLAGS = @OMNIORB_IDLPYFLAGS@
OMNIORB_IDL_CLN_CXX = @OMNIORB_IDL_CLN_CXX@
OMNIORB_IDL_CLN_H = @OMNIORB_IDL_CLN_H@
OMNIORB_IDL_CLN_OBJ = @OMNIORB_IDL_CLN_OBJ@
OMNIORB_IDL_SRV_CXX = @OMNIORB_IDL_SRV_CXX@
OMNIORB_IDL_SRV_H = @OMNIORB_IDL_SRV_H@
OMNIORB_IDL_SRV_OBJ = @OMNIORB_IDL_SRV_OBJ@
OMNIORB_IDL_TIE_CXX = @OMNIORB_IDL_TIE_CXX@
OMNIORB_IDL_TIE_H = @OMNIORB_IDL_TIE_H@
OMNIORB_INCLUDES = @OMNIORB_INCLUDES@
OMNIORB_LIBS = @OMNIORB_LIBS@
OMNIORB_ROOT = @OMNIORB_ROOT@
OTOOL = @OTOOL@
OTOOL64 = @OTOOL64@
PACKAGE = @PACKAGE@
PACKAGE_BUGREPORT = @PACKAGE_BUGREPORT@
PACKAGE_NAME = @PACKAGE_NAME@
PACKAGE_STRING = @PACKAGE_STRING@
PACKAGE_TARNAME = @PACKAGE_TARNAME@
PACKAGE_URL = @PACKAGE_URL@
PACKAGE_VERSION = @PACKAGE_VERSION@
PARAMEDMEM_CPPFLAGS = @PARAMEDMEM_CPPFLAGS@
PARAMEDMEM_LDFLAGS = @PARAMEDMEM_LDFLAGS@
PARAMEDMEM_LIBS = @PARAMEDMEM_LIBS@
PATH_SEPARATOR = @PATH_SEPARATOR@
PDFLATEX = @PDFLATEX@
PETSC_CPPFLAGS = @PETSC_CPPFLAGS@
PETSC_LDFLAGS = @PETSC_LDFLAGS@
PETSC_LIBS = @PETSC_LIBS@
PLE_CPPFLAGS = @PLE_CPPFLAGS@
PLE_LDFLAGS = @PLE_LDFLAGS@
PLE_LIBS = @PLE_LIBS@
POSUB = @POSUB@
POW_LIB = @POW_LIB@
PTHREAD_CC = @PTHREAD_CC@
PTHREAD_CFLAGS = @PTHREAD_CFLAGS@
PTHREAD_LIBS = @PTHREAD_LIBS@
PYRCC4 = @PYRCC4@
PYTHON = @PYTHON@
PYTHON_EXEC_PREFIX = @PYTHON_EXEC_PREFIX@
PYTHON_PLATFORM = @PYTHON_PLATFORM@
PYTHON_PREFIX = @PYTHON_PREFIX@
PYTHON_VERSION = @PYTHON_VERSION@
PYUIC4 = @PYUIC4@
RANLIB = @RANLIB@
SALOMEENVCMD = @SALOMEENVCMD@
SALOMEPRE = @SALOMEPRE@
SALOMERUN = @SALOMERUN@
SALOME_GUI = @SALOME_GUI@
SALOME_GUI_CPPFLAGS = @SALOME_GUI_CPPFLAGS@
SALOME_GUI_IDL = @SALOME_GUI_IDL@
SALOME_GUI_LDFLAGS = @SALOME_GUI_LDFLAGS@
SALOME_GUI_LIBS = @SALOME_GUI_LIBS@
SALOME_KERNEL = @SALOME_KERNEL@
SALOME_KERNEL_CPPFLAGS = @SALOME_KERNEL_CPPFLAGS@
SALOME_KERNEL_IDL = @SALOME_KERNEL_IDL@
SALOME_KERNEL_LDFLAGS = @SALOME_KERNEL_LDFLAGS@
SALOME_KERNEL_LIBS = @SALOME_KERNEL_LIBS@
SALOME_YACS = @SALOME_YACS@
SALOME_YACS_CPPFLAGS = @SALOME_YACS_CPPFLAGS@
SALOME_YACS_IDL = @SALOME_YACS_IDL@
SALOME_YACS_LDFLAGS = @SALOME_YACS_LDFLAGS@
SALOME_YACS_LIBS = @SALOME_YACS_LIBS@
SCOTCHRUNPATH = @SCOTCHRUNPATH@
SCOTCH_CPPFLAGS = @SCOTCH_CPPFLAGS@
SCOTCH_LDFLAGS = @SCOTCH_LDFLAGS@
SCOTCH_LIBS = @SCOTCH_LIBS@
SED = @SED@
SET_MAKE = @SET_MAKE@
SHELL = @SHELL@
SPHINXBUILD = @SPHINXBUILD@
STRIP = @STRIP@
USE_NLS = @USE_NLS@
VERSION = @VERSION@
XGETTEXT = @XGETTEXT@
XGETTEXT_015 = @XGETTEXT_015@
XGETTEXT_EXTRA_OPTIONS = @XGETTEXT_EXTRA_OPTIONS@
YACC = @YACC@
YFLAGS = @YFLAGS@
abs_builddir = @abs_builddir@
abs_srcdir = @abs_srcdir@
abs_top_builddir = @abs_top_builddir@
abs_top_srcdir = @abs_top_srcdir@
ac_ct_CC = @ac_ct_CC@
ac_ct_CXX = @ac_ct_CXX@
ac_ct_DUMPBIN = @ac_ct_DUMPBIN@
ac_ct_FC = @ac_ct_FC@
acx_pthread_config = @acx_pthread_config@
am__include = @am__include@
am__leading_dot = @am__leading_dot@
am__quote = @am__quote@
am__tar = @am__tar@
am__untar = @am__untar@
bindir = @bindir@
build = @build@
build_alias = @build_alias@
build_cpu = @build_cpu@
build_os = @build_os@
build_vendor = @build_vendor@
builddir = @builddir@
ccversion = @ccversion@
cgns_prefix = @cgns_prefix@
coolprop_prefix = @coolprop_prefix@
cs_env_modules = @cs_env_modules@
cs_have_blas = @cs_have_blas@
cs_have_calcium = @cs_have_calcium@
cs_have_catalyst = @cs_have_catalyst@
cs_have_ccm = @cs_have_ccm@
cs_have_cgns = @cs_have_cgns@
cs_have_coolprop = @cs_have_coolprop@
cs_have_doxygen = @cs_have_doxygen@
cs_have_eos = @cs_have_eos@
cs_have_freesteam = @cs_have_freesteam@
cs_have_frontend = @cs_have_frontend@
cs_have_gui = @cs_have_gui@
cs_have_hdf5 = @cs_have_hdf5@
cs_have_latex = @cs_have_latex@
cs_have_libxml2 = @cs_have_libxml2@
cs_have_long_gnum = @cs_have_long_gnum@
cs_have_med = @cs_have_med@
cs_have_medcoupling = @cs_have_medcoupling@
cs_have_metis = @cs_have_metis@
cs_have_mpi = @cs_have_mpi@
cs_have_openmp = @cs_have_openmp@
cs_have_paramedmem = @cs_have_paramedmem@
cs_have_petsc = @cs_have_petsc@
cs_have_salome_gui = @cs_have_salome_gui@
cs_have_salome_kernel = @cs_have_salome_kernel@
cs_have_salome_yacs = @cs_have_salome_yacs@
cs_have_scotch = @cs_have_scotch@
cs_have_sphinx = @cs_have_sphinx@
cs_py_have_plugins = @cs_py_have_plugins@
cs_special_user_link = @cs_special_user_link@
cs_src_revision = @cs_src_revision@
cs_tex_path_end = @cs_tex_path_end@
cs_tex_path_sep = @cs_tex_path_sep@
cs_version = @cs_version@
cs_version_full = @cs_version_full@
cs_version_short = @cs_version_short@
datadir = @datadir@
datarootdir = @datarootdir@
debug = @debug@
docdir = @docdir@
dvidir = @dvidir@
enable_shared = @enable_shared@
eos_prefix = @eos_prefix@
exec_prefix = @exec_prefix@
freesteam_prefix = @freesteam_prefix@
hdf5_prefix = @hdf5_prefix@
host = @host@
host_alias = @host_alias@
host_cpu = @host_cpu@
host_os = @host_os@
host_vendor = @host_vendor@
htmldir = @htmldir@
includedir = @includedir@
infodir = @infodir@
install_sh = @install_sh@
libdir = @libdir@
libexecdir = @libexecdir@
libxml2_prefix = @libxml2_prefix@
localedir = @localedir@
localstatedir = @localstatedir@
lt_ECHO = @lt_ECHO@
mandir = @mandir@
med_prefix = @med_prefix@
metis_prefix = @metis_prefix@
mkdir_p = @mkdir_p@
mpi_bindir = @mpi_bindir@
mpi_libdir = @mpi_libdir@
mpi_prefix = @mpi_prefix@
mpi_type = @mpi_type@
oldincludedir = @oldincludedir@
pdfdir = @pdfdir@
pkgpyexecdir = @pkgpyexecdir@
pkgpythondir = @pkgpythondir@
ple_docdir = @ple_docdir@
ple_type = @ple_type@
prefix = @prefix@
profile = @profile@
program_transform_name = @program_transform_name@
psdir = @psdir@
pyexecdir = @pyexecdir@
pythondir = @pythondir@
pythonversion = @pythonversion@
relocatable = @relocatable@
sbindir = @sbindir@
scotch_prefix = @scotch_prefix@
sharedstatedir = @sharedstatedir@
srcdir = @srcdir@
subdirs = @subdirs@
sysconfdir = @sysconfdir@
target = @target@
target_alias = @target_alias@
target_cpu = @target_cpu@
target_os = @target_os@
target_vendor = @target_vendor@
top_build_prefix = @top_build_prefix@
top_builddir = @top_builddir@
top_srcdir = @top_srcdir@
win_prefix = @win_prefix@
AM_CPPFLAGS = \
-I$(top_srcdir)/src/base \
-I$(top_srcdir)/src/bft \
-I<path_to_melissa_install>/include \
$(MPI_CPPFLAGS)

AM_CFLAGS = $(CFLAGS_DBG) $(CFLAGS_OPT)
AM_CXXFLAGS = $(CXXFLAGS_DBG) $(CXXFLAGS_OPT)
AM_LDFLAGS = $(CCM_LDFLAGS) $(CGNS_LDFLAGS) $(MED_LDFLAGS) \
$(HDF5_LDFLAGS) $(MPI_LDFLAGS)


# Conditionally compiled extensions
libfvm_cgns_la_CPPFLAGS = \
-I$(top_srcdir)/src/base \
-I$(top_srcdir)/src/bft \
$(CGNS_CPPFLAGS) $(MPI_CPPFLAGS)

libfvm_med_la_CPPFLAGS = \
-I$(top_srcdir)/src/base \
-I$(top_srcdir)/src/bft \
$(HDF5_CPPFLAGS) $(MED_CPPFLAGS) $(MPI_CPPFLAGS)


# Public header files (to be installed)
pkginclude_HEADERS = \
fvm_defs.h \
fvm_group.h \
fvm_io_num.h \
fvm_neighborhood.h \
fvm_nodal.h \
fvm_nodal_append.h \
fvm_nodal_extrude.h \
fvm_nodal_from_desc.h \
fvm_nodal_order.h \
fvm_nodal_project.h \
fvm_nodal_triangulate.h \
fvm_nodal_extract.h \
fvm_periodicity.h \
fvm_point_location.h \
fvm_selector.h \
fvm_trace.h \
fvm_triangulate.h \
fvm_writer.h

noinst_HEADERS = \
fvm_box.h \
fvm_box_priv.h \
fvm_box_tree.h \
fvm_convert_array.h \
fvm_hilbert.h \
fvm_morton.h \
fvm_nodal_priv.h \
fvm_selector_postfix.h \
fvm_tesselation.h \
fvm_to_ccm.h \
fvm_to_cgns.h \
fvm_to_med.h \
fvm_to_catalyst.h \
fvm_to_ensight.h \
fvm_to_melissa.h \
fvm_to_ensight_case.h \
fvm_to_medcoupling.h \
fvm_writer_helper.h \
fvm_writer_priv.h


# Library source files
lib_LTLIBRARIES = 
pkglib_LTLIBRARIES = $(am__append_7) $(am__append_8)
noinst_LTLIBRARIES = libfvm.la libfvm_filters.la $(am__append_1) \
	$(am__append_3) $(am__append_5) $(am__append_9)
libfvm_la_LIBADD = $(LTLIBINTL)
libfvm_filters_la_LIBADD = $(am__append_2) $(am__append_4) \
	$(am__append_6) $(am__append_10)
libfvm_la_SOURCES = \
fvm_box.c \
fvm_box_tree.c \
fvm_convert_array.c \
fvm_defs.c \
fvm_group.c \
fvm_hilbert.c \
fvm_io_num.c \
fvm_morton.c \
fvm_neighborhood.c \
fvm_nodal.c \
fvm_nodal_append.c \
fvm_nodal_extrude.c \
fvm_nodal_from_desc.c \
fvm_nodal_order.c \
fvm_nodal_project.c \
fvm_nodal_triangulate.c \
fvm_nodal_extract.c \
fvm_periodicity.c \
fvm_point_location.c \
fvm_selector.c \
fvm_selector_postfix.c \
fvm_tesselation.c \
fvm_trace.c \
fvm_triangulate.c

libfvm_filters_la_SOURCES = \
fvm_to_melissa.c \
fvm_to_ensight.c \
fvm_to_ensight_case.c \
fvm_writer.c \
fvm_writer_helper.c

@HAVE_CCM_TRUE@libfvm_ccm_la_CPPFLAGS = \
@HAVE_CCM_TRUE@-I$(top_srcdir)/src/base \
@HAVE_CCM_TRUE@-I$(top_srcdir)/src/bft \
@HAVE_CCM_TRUE@-I$(top_srcdir)/src/mesh \
@HAVE_CCM_TRUE@$(CFLAGS_DBG) $(CFLAGS_OPT) \
@HAVE_CCM_TRUE@$(CCM_CPPFLAGS) $(MPI_CPPFLAGS)

@HAVE_CCM_TRUE@libfvm_ccm_la_SOURCES = fvm_to_ccm.c
@HAVE_CGNS_TRUE@libfvm_cgns_la_SOURCES = fvm_to_cgns.c
@HAVE_MED_TRUE@libfvm_med_la_SOURCES = fvm_to_med.c
@HAVE_MEDCOUPLING_TRUE@fvm_medcoupling_la_CPPFLAGS = \
@HAVE_MEDCOUPLING_TRUE@-I$(top_srcdir)/src/base \
@HAVE_MEDCOUPLING_TRUE@-I$(top_srcdir)/src/bft \
@HAVE_MEDCOUPLING_TRUE@$(CXXFLAGS_DBG) $(CXXFLAGS_OPT) \
@HAVE_MEDCOUPLING_TRUE@$(MEDCOUPLING_CPPFLAGS) $(MPI_CPPFLAGS)

@HAVE_MEDCOUPLING_TRUE@fvm_medcoupling_la_SOURCES = fvm_to_medcoupling.cxx
@HAVE_MEDCOUPLING_TRUE@fvm_medcoupling_la_LDFLAGS = -module -avoid-version
@HAVE_MEDCOUPLING_TRUE@fvm_medcoupling_la_LIBADD = \
@HAVE_MEDCOUPLING_TRUE@$(MEDCOUPLING_LDFLAGS) $(MEDCOUPLING_LIBS) \
@HAVE_MEDCOUPLING_TRUE@$(MEDCOUPLINGRUNPATH)


# Catalyst (plugin or linked)
@HAVE_CATALYST_TRUE@@HAVE_PLUGINS_TRUE@fvm_catalyst_la_CPPFLAGS = \
@HAVE_CATALYST_TRUE@@HAVE_PLUGINS_TRUE@-I$(top_srcdir)/src/base \
@HAVE_CATALYST_TRUE@@HAVE_PLUGINS_TRUE@-I$(top_srcdir)/src/bft \
@HAVE_CATALYST_TRUE@@HAVE_PLUGINS_TRUE@$(CXXFLAGS_DBG) $(CXXFLAGS_OPT) \
@HAVE_CATALYST_TRUE@@HAVE_PLUGINS_TRUE@$(CATALYST_CPPFLAGS) $(CATALYST_CXXFLAGS) $(MPI_CPPFLAGS)

@HAVE_CATALYST_TRUE@@HAVE_PLUGINS_TRUE@fvm_catalyst_la_LIBADD = \
@HAVE_CATALYST_TRUE@@HAVE_PLUGINS_TRUE@$(CATALYST_LDFLAGS) $(CATALYST_LIBS) \
@HAVE_CATALYST_TRUE@@HAVE_PLUGINS_TRUE@$(CATALYSTRUNPATH)

@HAVE_CATALYST_TRUE@@HAVE_PLUGINS_TRUE@fvm_catalyst_la_SOURCES = fvm_to_catalyst.cxx
@HAVE_CATALYST_TRUE@@HAVE_PLUGINS_TRUE@fvm_catalyst_la_LDFLAGS = -module -avoid-version
@HAVE_CATALYST_TRUE@@HAVE_PLUGINS_FALSE@libfvm_catalyst_la_CPPFLAGS = \
@HAVE_CATALYST_TRUE@@HAVE_PLUGINS_FALSE@-I$(top_srcdir)/src/base \
@HAVE_CATALYST_TRUE@@HAVE_PLUGINS_FALSE@-I$(top_srcdir)/src/bft \
@HAVE_CATALYST_TRUE@@HAVE_PLUGINS_FALSE@$(CXXFLAGS_DBG) $(CXXFLAGS_OPT) \
@HAVE_CATALYST_TRUE@@HAVE_PLUGINS_FALSE@$(CATALYST_CPPFLAGS) $(CATALYST_CXXFLAGS) $(MPI_CPPFLAGS)

@HAVE_CATALYST_TRUE@@HAVE_PLUGINS_FALSE@libfvm_catalyst_la_LIBADD = \
@HAVE_CATALYST_TRUE@@HAVE_PLUGINS_FALSE@$(CATALYST_LDFLAGS) $(CATALYST_LIBS) \
@HAVE_CATALYST_TRUE@@HAVE_PLUGINS_FALSE@$(CATALYSTRUNPATH)

@HAVE_CATALYST_TRUE@@HAVE_PLUGINS_FALSE@libfvm_catalyst_la_SOURCES = fvm_to_catalyst.cxx
libfvm_la_LDFLAGS = -no-undefined
libfvm_filters_la_LDFLAGS = -no-undefined
all: all-am

.SUFFIXES:
.SUFFIXES: .c .cxx .lo .o .obj
$(srcdir)/Makefile.in: @MAINTAINER_MODE_TRUE@ $(srcdir)/Makefile.am  $(am__configure_deps)
	@for dep in $?; do \
	  case '$(am__configure_deps)' in \
	    *$$dep*) \
	      ( cd $(top_builddir) && $(MAKE) $(AM_MAKEFLAGS) am--refresh ) \
	        && { if test -f $@; then exit 0; else break; fi; }; \
	      exit 1;; \
	  esac; \
	done; \
	echo ' cd $(top_srcdir) && $(AUTOMAKE) --foreign src/fvm/Makefile'; \
	$(am__cd) $(top_srcdir) && \
	  $(AUTOMAKE) --foreign src/fvm/Makefile
.PRECIOUS: Makefile
Makefile: $(srcdir)/Makefile.in $(top_builddir)/config.status
	@case '$?' in \
	  *config.status*) \
	    cd $(top_builddir) && $(MAKE) $(AM_MAKEFLAGS) am--refresh;; \
	  *) \
	    echo ' cd $(top_builddir) && $(SHELL) ./config.status $(subdir)/$@ $(am__depfiles_maybe)'; \
	    cd $(top_builddir) && $(SHELL) ./config.status $(subdir)/$@ $(am__depfiles_maybe);; \
	esac;

$(top_builddir)/config.status: $(top_srcdir)/configure $(CONFIG_STATUS_DEPENDENCIES)
	cd $(top_builddir) && $(MAKE) $(AM_MAKEFLAGS) am--refresh

$(top_srcdir)/configure: @MAINTAINER_MODE_TRUE@ $(am__configure_deps)
	cd $(top_builddir) && $(MAKE) $(AM_MAKEFLAGS) am--refresh
$(ACLOCAL_M4): @MAINTAINER_MODE_TRUE@ $(am__aclocal_m4_deps)
	cd $(top_builddir) && $(MAKE) $(AM_MAKEFLAGS) am--refresh
$(am__aclocal_m4_deps):
install-libLTLIBRARIES: $(lib_LTLIBRARIES)
	@$(NORMAL_INSTALL)
	test -z "$(libdir)" || $(MKDIR_P) "$(DESTDIR)$(libdir)"
	@list='$(lib_LTLIBRARIES)'; test -n "$(libdir)" || list=; \
	list2=; for p in $$list; do \
	  if test -f $$p; then \
	    list2="$$list2 $$p"; \
	  else :; fi; \
	done; \
	test -z "$$list2" || { \
	  echo " $(LIBTOOL) $(AM_LIBTOOLFLAGS) $(LIBTOOLFLAGS) --mode=install $(INSTALL) $(INSTALL_STRIP_FLAG) $$list2 '$(DESTDIR)$(libdir)'"; \
	  $(LIBTOOL) $(AM_LIBTOOLFLAGS) $(LIBTOOLFLAGS) --mode=install $(INSTALL) $(INSTALL_STRIP_FLAG) $$list2 "$(DESTDIR)$(libdir)"; \
	}

uninstall-libLTLIBRARIES:
	@$(NORMAL_UNINSTALL)
	@list='$(lib_LTLIBRARIES)'; test -n "$(libdir)" || list=; \
	for p in $$list; do \
	  $(am__strip_dir) \
	  echo " $(LIBTOOL) $(AM_LIBTOOLFLAGS) $(LIBTOOLFLAGS) --mode=uninstall rm -f '$(DESTDIR)$(libdir)/$$f'"; \
	  $(LIBTOOL) $(AM_LIBTOOLFLAGS) $(LIBTOOLFLAGS) --mode=uninstall rm -f "$(DESTDIR)$(libdir)/$$f"; \
	done

clean-libLTLIBRARIES:
	-test -z "$(lib_LTLIBRARIES)" || rm -f $(lib_LTLIBRARIES)
	@list='$(lib_LTLIBRARIES)'; for p in $$list; do \
	  dir="`echo $$p | sed -e 's|/[^/]*$$||'`"; \
	  test "$$dir" != "$$p" || dir=.; \
	  echo "rm -f \"$${dir}/so_locations\""; \
	  rm -f "$${dir}/so_locations"; \
	done

clean-noinstLTLIBRARIES:
	-test -z "$(noinst_LTLIBRARIES)" || rm -f $(noinst_LTLIBRARIES)
	@list='$(noinst_LTLIBRARIES)'; for p in $$list; do \
	  dir="`echo $$p | sed -e 's|/[^/]*$$||'`"; \
	  test "$$dir" != "$$p" || dir=.; \
	  echo "rm -f \"$${dir}/so_locations\""; \
	  rm -f "$${dir}/so_locations"; \
	done
install-pkglibLTLIBRARIES: $(pkglib_LTLIBRARIES)
	@$(NORMAL_INSTALL)
	test -z "$(pkglibdir)" || $(MKDIR_P) "$(DESTDIR)$(pkglibdir)"
	@list='$(pkglib_LTLIBRARIES)'; test -n "$(pkglibdir)" || list=; \
	list2=; for p in $$list; do \
	  if test -f $$p; then \
	    list2="$$list2 $$p"; \
	  else :; fi; \
	done; \
	test -z "$$list2" || { \
	  echo " $(LIBTOOL) $(AM_LIBTOOLFLAGS) $(LIBTOOLFLAGS) --mode=install $(INSTALL) $(INSTALL_STRIP_FLAG) $$list2 '$(DESTDIR)$(pkglibdir)'"; \
	  $(LIBTOOL) $(AM_LIBTOOLFLAGS) $(LIBTOOLFLAGS) --mode=install $(INSTALL) $(INSTALL_STRIP_FLAG) $$list2 "$(DESTDIR)$(pkglibdir)"; \
	}

uninstall-pkglibLTLIBRARIES:
	@$(NORMAL_UNINSTALL)
	@list='$(pkglib_LTLIBRARIES)'; test -n "$(pkglibdir)" || list=; \
	for p in $$list; do \
	  $(am__strip_dir) \
	  echo " $(LIBTOOL) $(AM_LIBTOOLFLAGS) $(LIBTOOLFLAGS) --mode=uninstall rm -f '$(DESTDIR)$(pkglibdir)/$$f'"; \
	  $(LIBTOOL) $(AM_LIBTOOLFLAGS) $(LIBTOOLFLAGS) --mode=uninstall rm -f "$(DESTDIR)$(pkglibdir)/$$f"; \
	done

clean-pkglibLTLIBRARIES:
	-test -z "$(pkglib_LTLIBRARIES)" || rm -f $(pkglib_LTLIBRARIES)
	@list='$(pkglib_LTLIBRARIES)'; for p in $$list; do \
	  dir="`echo $$p | sed -e 's|/[^/]*$$||'`"; \
	  test "$$dir" != "$$p" || dir=.; \
	  echo "rm -f \"$${dir}/so_locations\""; \
	  rm -f "$${dir}/so_locations"; \
	done
fvm_catalyst.la: $(fvm_catalyst_la_OBJECTS) $(fvm_catalyst_la_DEPENDENCIES) 
	$(AM_V_CXXLD)$(fvm_catalyst_la_LINK) $(am_fvm_catalyst_la_rpath) $(fvm_catalyst_la_OBJECTS) $(fvm_catalyst_la_LIBADD) $(LIBS)
fvm_medcoupling.la: $(fvm_medcoupling_la_OBJECTS) $(fvm_medcoupling_la_DEPENDENCIES) 
	$(AM_V_CXXLD)$(fvm_medcoupling_la_LINK) $(am_fvm_medcoupling_la_rpath) $(fvm_medcoupling_la_OBJECTS) $(fvm_medcoupling_la_LIBADD) $(LIBS)
libfvm.la: $(libfvm_la_OBJECTS) $(libfvm_la_DEPENDENCIES) 
	$(AM_V_CCLD)$(libfvm_la_LINK)  $(libfvm_la_OBJECTS) $(libfvm_la_LIBADD) $(LIBS)
libfvm_catalyst.la: $(libfvm_catalyst_la_OBJECTS) $(libfvm_catalyst_la_DEPENDENCIES) 
	$(AM_V_CXXLD)$(CXXLINK) $(am_libfvm_catalyst_la_rpath) $(libfvm_catalyst_la_OBJECTS) $(libfvm_catalyst_la_LIBADD) $(LIBS)
libfvm_ccm.la: $(libfvm_ccm_la_OBJECTS) $(libfvm_ccm_la_DEPENDENCIES) 
	$(AM_V_CCLD)$(LINK) $(am_libfvm_ccm_la_rpath) $(libfvm_ccm_la_OBJECTS) $(libfvm_ccm_la_LIBADD) $(LIBS)
libfvm_cgns.la: $(libfvm_cgns_la_OBJECTS) $(libfvm_cgns_la_DEPENDENCIES) 
	$(AM_V_CCLD)$(LINK) $(am_libfvm_cgns_la_rpath) $(libfvm_cgns_la_OBJECTS) $(libfvm_cgns_la_LIBADD) $(LIBS)
libfvm_filters.la: $(libfvm_filters_la_OBJECTS) $(libfvm_filters_la_DEPENDENCIES) 
	$(AM_V_CCLD)$(libfvm_filters_la_LINK)  $(libfvm_filters_la_OBJECTS) $(libfvm_filters_la_LIBADD) $(LIBS)
libfvm_med.la: $(libfvm_med_la_OBJECTS) $(libfvm_med_la_DEPENDENCIES) 
	$(AM_V_CCLD)$(LINK) $(am_libfvm_med_la_rpath) $(libfvm_med_la_OBJECTS) $(libfvm_med_la_LIBADD) $(LIBS)

mostlyclean-compile:
	-rm -f *.$(OBJEXT)

distclean-compile:
	-rm -f *.tab.c

@AMDEP_TRUE@@am__include@ @am__quote@./$(DEPDIR)/fvm_box.Plo@am__quote@
@AMDEP_TRUE@@am__include@ @am__quote@./$(DEPDIR)/fvm_box_tree.Plo@am__quote@
@AMDEP_TRUE@@am__include@ @am__quote@./$(DEPDIR)/fvm_catalyst_la-fvm_to_catalyst.Plo@am__quote@
@AMDEP_TRUE@@am__include@ @am__quote@./$(DEPDIR)/fvm_convert_array.Plo@am__quote@
@AMDEP_TRUE@@am__include@ @am__quote@./$(DEPDIR)/fvm_defs.Plo@am__quote@
@AMDEP_TRUE@@am__include@ @am__quote@./$(DEPDIR)/fvm_group.Plo@am__quote@
@AMDEP_TRUE@@am__include@ @am__quote@./$(DEPDIR)/fvm_hilbert.Plo@am__quote@
@AMDEP_TRUE@@am__include@ @am__quote@./$(DEPDIR)/fvm_io_num.Plo@am__quote@
@AMDEP_TRUE@@am__include@ @am__quote@./$(DEPDIR)/fvm_medcoupling_la-fvm_to_medcoupling.Plo@am__quote@
@AMDEP_TRUE@@am__include@ @am__quote@./$(DEPDIR)/fvm_morton.Plo@am__quote@
@AMDEP_TRUE@@am__include@ @am__quote@./$(DEPDIR)/fvm_neighborhood.Plo@am__quote@
@AMDEP_TRUE@@am__include@ @am__quote@./$(DEPDIR)/fvm_nodal.Plo@am__quote@
@AMDEP_TRUE@@am__include@ @am__quote@./$(DEPDIR)/fvm_nodal_append.Plo@am__quote@
@AMDEP_TRUE@@am__include@ @am__quote@./$(DEPDIR)/fvm_nodal_extract.Plo@am__quote@
@AMDEP_TRUE@@am__include@ @am__quote@./$(DEPDIR)/fvm_nodal_extrude.Plo@am__quote@
@AMDEP_TRUE@@am__include@ @am__quote@./$(DEPDIR)/fvm_nodal_from_desc.Plo@am__quote@
@AMDEP_TRUE@@am__include@ @am__quote@./$(DEPDIR)/fvm_nodal_order.Plo@am__quote@
@AMDEP_TRUE@@am__include@ @am__quote@./$(DEPDIR)/fvm_nodal_project.Plo@am__quote@
@AMDEP_TRUE@@am__include@ @am__quote@./$(DEPDIR)/fvm_nodal_triangulate.Plo@am__quote@
@AMDEP_TRUE@@am__include@ @am__quote@./$(DEPDIR)/fvm_periodicity.Plo@am__quote@
@AMDEP_TRUE@@am__include@ @am__quote@./$(DEPDIR)/fvm_point_location.Plo@am__quote@
@AMDEP_TRUE@@am__include@ @am__quote@./$(DEPDIR)/fvm_selector.Plo@am__quote@
@AMDEP_TRUE@@am__include@ @am__quote@./$(DEPDIR)/fvm_selector_postfix.Plo@am__quote@
@AMDEP_TRUE@@am__include@ @am__quote@./$(DEPDIR)/fvm_tesselation.Plo@am__quote@
@AMDEP_TRUE@@am__include@ @am__quote@./$(DEPDIR)/fvm_to_ensight.Plo@am__quote@
@AMDEP_TRUE@@am__include@ @am__quote@./$(DEPDIR)/fvm_to_ensight_case.Plo@am__quote@
@AMDEP_TRUE@@am__include@ @am__quote@./$(DEPDIR)/fvm_to_melissa.Plo@am__quote@
@AMDEP_TRUE@@am__include@ @am__quote@./$(DEPDIR)/fvm_trace.Plo@am__quote@
@AMDEP_TRUE@@am__include@ @am__quote@./$(DEPDIR)/fvm_triangulate.Plo@am__quote@
@AMDEP_TRUE@@am__include@ @am__quote@./$(DEPDIR)/fvm_writer.Plo@am__quote@
@AMDEP_TRUE@@am__include@ @am__quote@./$(DEPDIR)/fvm_writer_helper.Plo@am__quote@
@AMDEP_TRUE@@am__include@ @am__quote@./$(DEPDIR)/libfvm_catalyst_la-fvm_to_catalyst.Plo@am__quote@
@AMDEP_TRUE@@am__include@ @am__quote@./$(DEPDIR)/libfvm_ccm_la-fvm_to_ccm.Plo@am__quote@
@AMDEP_TRUE@@am__include@ @am__quote@./$(DEPDIR)/libfvm_cgns_la-fvm_to_cgns.Plo@am__quote@
@AMDEP_TRUE@@am__include@ @am__quote@./$(DEPDIR)/libfvm_med_la-fvm_to_med.Plo@am__quote@

.c.o:
@am__fastdepCC_TRUE@	$(AM_V_CC)$(COMPILE) -MT $@ -MD -MP -MF $(DEPDIR)/$*.Tpo -c -o $@ $<
@am__fastdepCC_TRUE@	$(AM_V_at)$(am__mv) $(DEPDIR)/$*.Tpo $(DEPDIR)/$*.Po
@am__fastdepCC_FALSE@	$(AM_V_CC) @AM_BACKSLASH@
@AMDEP_TRUE@@am__fastdepCC_FALSE@	source='$<' object='$@' libtool=no @AMDEPBACKSLASH@
@AMDEP_TRUE@@am__fastdepCC_FALSE@	DEPDIR=$(DEPDIR) $(CCDEPMODE) $(depcomp) @AMDEPBACKSLASH@
@am__fastdepCC_FALSE@	$(COMPILE) -c $<

.c.obj:
@am__fastdepCC_TRUE@	$(AM_V_CC)$(COMPILE) -MT $@ -MD -MP -MF $(DEPDIR)/$*.Tpo -c -o $@ `$(CYGPATH_W) '$<'`
@am__fastdepCC_TRUE@	$(AM_V_at)$(am__mv) $(DEPDIR)/$*.Tpo $(DEPDIR)/$*.Po
@am__fastdepCC_FALSE@	$(AM_V_CC) @AM_BACKSLASH@
@AMDEP_TRUE@@am__fastdepCC_FALSE@	source='$<' object='$@' libtool=no @AMDEPBACKSLASH@
@AMDEP_TRUE@@am__fastdepCC_FALSE@	DEPDIR=$(DEPDIR) $(CCDEPMODE) $(depcomp) @AMDEPBACKSLASH@
@am__fastdepCC_FALSE@	$(COMPILE) -c `$(CYGPATH_W) '$<'`

.c.lo:
@am__fastdepCC_TRUE@	$(AM_V_CC)$(LTCOMPILE) -MT $@ -MD -MP -MF $(DEPDIR)/$*.Tpo -c -o $@ $<
@am__fastdepCC_TRUE@	$(AM_V_at)$(am__mv) $(DEPDIR)/$*.Tpo $(DEPDIR)/$*.Plo
@am__fastdepCC_FALSE@	$(AM_V_CC) @AM_BACKSLASH@
@AMDEP_TRUE@@am__fastdepCC_FALSE@	source='$<' object='$@' libtool=yes @AMDEPBACKSLASH@
@AMDEP_TRUE@@am__fastdepCC_FALSE@	DEPDIR=$(DEPDIR) $(CCDEPMODE) $(depcomp) @AMDEPBACKSLASH@
@am__fastdepCC_FALSE@	$(LTCOMPILE) -c -o $@ $<

libfvm_ccm_la-fvm_to_ccm.lo: fvm_to_ccm.c
@am__fastdepCC_TRUE@	$(AM_V_CC)$(LIBTOOL) $(AM_V_lt) --tag=CC $(AM_LIBTOOLFLAGS) $(LIBTOOLFLAGS) --mode=compile $(CC) $(DEFS) $(DEFAULT_INCLUDES) $(INCLUDES) $(libfvm_ccm_la_CPPFLAGS) $(CPPFLAGS) $(AM_CFLAGS) $(CFLAGS) -MT libfvm_ccm_la-fvm_to_ccm.lo -MD -MP -MF $(DEPDIR)/libfvm_ccm_la-fvm_to_ccm.Tpo -c -o libfvm_ccm_la-fvm_to_ccm.lo `test -f 'fvm_to_ccm.c' || echo '$(srcdir)/'`fvm_to_ccm.c
@am__fastdepCC_TRUE@	$(AM_V_at)$(am__mv) $(DEPDIR)/libfvm_ccm_la-fvm_to_ccm.Tpo $(DEPDIR)/libfvm_ccm_la-fvm_to_ccm.Plo
@am__fastdepCC_FALSE@	$(AM_V_CC) @AM_BACKSLASH@
@AMDEP_TRUE@@am__fastdepCC_FALSE@	source='fvm_to_ccm.c' object='libfvm_ccm_la-fvm_to_ccm.lo' libtool=yes @AMDEPBACKSLASH@
@AMDEP_TRUE@@am__fastdepCC_FALSE@	DEPDIR=$(DEPDIR) $(CCDEPMODE) $(depcomp) @AMDEPBACKSLASH@
@am__fastdepCC_FALSE@	$(LIBTOOL) $(AM_V_lt) --tag=CC $(AM_LIBTOOLFLAGS) $(LIBTOOLFLAGS) --mode=compile $(CC) $(DEFS) $(DEFAULT_INCLUDES) $(INCLUDES) $(libfvm_ccm_la_CPPFLAGS) $(CPPFLAGS) $(AM_CFLAGS) $(CFLAGS) -c -o libfvm_ccm_la-fvm_to_ccm.lo `test -f 'fvm_to_ccm.c' || echo '$(srcdir)/'`fvm_to_ccm.c

libfvm_cgns_la-fvm_to_cgns.lo: fvm_to_cgns.c
@am__fastdepCC_TRUE@	$(AM_V_CC)$(LIBTOOL) $(AM_V_lt) --tag=CC $(AM_LIBTOOLFLAGS) $(LIBTOOLFLAGS) --mode=compile $(CC) $(DEFS) $(DEFAULT_INCLUDES) $(INCLUDES) $(libfvm_cgns_la_CPPFLAGS) $(CPPFLAGS) $(AM_CFLAGS) $(CFLAGS) -MT libfvm_cgns_la-fvm_to_cgns.lo -MD -MP -MF $(DEPDIR)/libfvm_cgns_la-fvm_to_cgns.Tpo -c -o libfvm_cgns_la-fvm_to_cgns.lo `test -f 'fvm_to_cgns.c' || echo '$(srcdir)/'`fvm_to_cgns.c
@am__fastdepCC_TRUE@	$(AM_V_at)$(am__mv) $(DEPDIR)/libfvm_cgns_la-fvm_to_cgns.Tpo $(DEPDIR)/libfvm_cgns_la-fvm_to_cgns.Plo
@am__fastdepCC_FALSE@	$(AM_V_CC) @AM_BACKSLASH@
@AMDEP_TRUE@@am__fastdepCC_FALSE@	source='fvm_to_cgns.c' object='libfvm_cgns_la-fvm_to_cgns.lo' libtool=yes @AMDEPBACKSLASH@
@AMDEP_TRUE@@am__fastdepCC_FALSE@	DEPDIR=$(DEPDIR) $(CCDEPMODE) $(depcomp) @AMDEPBACKSLASH@
@am__fastdepCC_FALSE@	$(LIBTOOL) $(AM_V_lt) --tag=CC $(AM_LIBTOOLFLAGS) $(LIBTOOLFLAGS) --mode=compile $(CC) $(DEFS) $(DEFAULT_INCLUDES) $(INCLUDES) $(libfvm_cgns_la_CPPFLAGS) $(CPPFLAGS) $(AM_CFLAGS) $(CFLAGS) -c -o libfvm_cgns_la-fvm_to_cgns.lo `test -f 'fvm_to_cgns.c' || echo '$(srcdir)/'`fvm_to_cgns.c

libfvm_med_la-fvm_to_med.lo: fvm_to_med.c
@am__fastdepCC_TRUE@	$(AM_V_CC)$(LIBTOOL) $(AM_V_lt) --tag=CC $(AM_LIBTOOLFLAGS) $(LIBTOOLFLAGS) --mode=compile $(CC) $(DEFS) $(DEFAULT_INCLUDES) $(INCLUDES) $(libfvm_med_la_CPPFLAGS) $(CPPFLAGS) $(AM_CFLAGS) $(CFLAGS) -MT libfvm_med_la-fvm_to_med.lo -MD -MP -MF $(DEPDIR)/libfvm_med_la-fvm_to_med.Tpo -c -o libfvm_med_la-fvm_to_med.lo `test -f 'fvm_to_med.c' || echo '$(srcdir)/'`fvm_to_med.c
@am__fastdepCC_TRUE@	$(AM_V_at)$(am__mv) $(DEPDIR)/libfvm_med_la-fvm_to_med.Tpo $(DEPDIR)/libfvm_med_la-fvm_to_med.Plo
@am__fastdepCC_FALSE@	$(AM_V_CC) @AM_BACKSLASH@
@AMDEP_TRUE@@am__fastdepCC_FALSE@	source='fvm_to_med.c' object='libfvm_med_la-fvm_to_med.lo' libtool=yes @AMDEPBACKSLASH@
@AMDEP_TRUE@@am__fastdepCC_FALSE@	DEPDIR=$(DEPDIR) $(CCDEPMODE) $(depcomp) @AMDEPBACKSLASH@
@am__fastdepCC_FALSE@	$(LIBTOOL) $(AM_V_lt) --tag=CC $(AM_LIBTOOLFLAGS) $(LIBTOOLFLAGS) --mode=compile $(CC) $(DEFS) $(DEFAULT_INCLUDES) $(INCLUDES) $(libfvm_med_la_CPPFLAGS) $(CPPFLAGS) $(AM_CFLAGS) $(CFLAGS) -c -o libfvm_med_la-fvm_to_med.lo `test -f 'fvm_to_med.c' || echo '$(srcdir)/'`fvm_to_med.c

.cxx.o:
@am__fastdepCXX_TRUE@	$(AM_V_CXX)$(CXXCOMPILE) -MT $@ -MD -MP -MF $(DEPDIR)/$*.Tpo -c -o $@ $<
@am__fastdepCXX_TRUE@	$(AM_V_at)$(am__mv) $(DEPDIR)/$*.Tpo $(DEPDIR)/$*.Po
@am__fastdepCXX_FALSE@	$(AM_V_CXX) @AM_BACKSLASH@
@AMDEP_TRUE@@am__fastdepCXX_FALSE@	source='$<' object='$@' libtool=no @AMDEPBACKSLASH@
@AMDEP_TRUE@@am__fastdepCXX_FALSE@	DEPDIR=$(DEPDIR) $(CXXDEPMODE) $(depcomp) @AMDEPBACKSLASH@
@am__fastdepCXX_FALSE@	$(CXXCOMPILE) -c -o $@ $<

.cxx.obj:
@am__fastdepCXX_TRUE@	$(AM_V_CXX)$(CXXCOMPILE) -MT $@ -MD -MP -MF $(DEPDIR)/$*.Tpo -c -o $@ `$(CYGPATH_W) '$<'`
@am__fastdepCXX_TRUE@	$(AM_V_at)$(am__mv) $(DEPDIR)/$*.Tpo $(DEPDIR)/$*.Po
@am__fastdepCXX_FALSE@	$(AM_V_CXX) @AM_BACKSLASH@
@AMDEP_TRUE@@am__fastdepCXX_FALSE@	source='$<' object='$@' libtool=no @AMDEPBACKSLASH@
@AMDEP_TRUE@@am__fastdepCXX_FALSE@	DEPDIR=$(DEPDIR) $(CXXDEPMODE) $(depcomp) @AMDEPBACKSLASH@
@am__fastdepCXX_FALSE@	$(CXXCOMPILE) -c -o $@ `$(CYGPATH_W) '$<'`

.cxx.lo:
@am__fastdepCXX_TRUE@	$(AM_V_CXX)$(LTCXXCOMPILE) -MT $@ -MD -MP -MF $(DEPDIR)/$*.Tpo -c -o $@ $<
@am__fastdepCXX_TRUE@	$(AM_V_at)$(am__mv) $(DEPDIR)/$*.Tpo $(DEPDIR)/$*.Plo
@am__fastdepCXX_FALSE@	$(AM_V_CXX) @AM_BACKSLASH@
@AMDEP_TRUE@@am__fastdepCXX_FALSE@	source='$<' object='$@' libtool=yes @AMDEPBACKSLASH@
@AMDEP_TRUE@@am__fastdepCXX_FALSE@	DEPDIR=$(DEPDIR) $(CXXDEPMODE) $(depcomp) @AMDEPBACKSLASH@
@am__fastdepCXX_FALSE@	$(LTCXXCOMPILE) -c -o $@ $<

fvm_catalyst_la-fvm_to_catalyst.lo: fvm_to_catalyst.cxx
@am__fastdepCXX_TRUE@	$(AM_V_CXX)$(LIBTOOL) $(AM_V_lt) --tag=CXX $(AM_LIBTOOLFLAGS) $(LIBTOOLFLAGS) --mode=compile $(CXX) $(DEFS) $(DEFAULT_INCLUDES) $(INCLUDES) $(fvm_catalyst_la_CPPFLAGS) $(CPPFLAGS) $(AM_CXXFLAGS) $(CXXFLAGS) -MT fvm_catalyst_la-fvm_to_catalyst.lo -MD -MP -MF $(DEPDIR)/fvm_catalyst_la-fvm_to_catalyst.Tpo -c -o fvm_catalyst_la-fvm_to_catalyst.lo `test -f 'fvm_to_catalyst.cxx' || echo '$(srcdir)/'`fvm_to_catalyst.cxx
@am__fastdepCXX_TRUE@	$(AM_V_at)$(am__mv) $(DEPDIR)/fvm_catalyst_la-fvm_to_catalyst.Tpo $(DEPDIR)/fvm_catalyst_la-fvm_to_catalyst.Plo
@am__fastdepCXX_FALSE@	$(AM_V_CXX) @AM_BACKSLASH@
@AMDEP_TRUE@@am__fastdepCXX_FALSE@	source='fvm_to_catalyst.cxx' object='fvm_catalyst_la-fvm_to_catalyst.lo' libtool=yes @AMDEPBACKSLASH@
@AMDEP_TRUE@@am__fastdepCXX_FALSE@	DEPDIR=$(DEPDIR) $(CXXDEPMODE) $(depcomp) @AMDEPBACKSLASH@
@am__fastdepCXX_FALSE@	$(LIBTOOL) $(AM_V_lt) --tag=CXX $(AM_LIBTOOLFLAGS) $(LIBTOOLFLAGS) --mode=compile $(CXX) $(DEFS) $(DEFAULT_INCLUDES) $(INCLUDES) $(fvm_catalyst_la_CPPFLAGS) $(CPPFLAGS) $(AM_CXXFLAGS) $(CXXFLAGS) -c -o fvm_catalyst_la-fvm_to_catalyst.lo `test -f 'fvm_to_catalyst.cxx' || echo '$(srcdir)/'`fvm_to_catalyst.cxx

fvm_medcoupling_la-fvm_to_medcoupling.lo: fvm_to_medcoupling.cxx
@am__fastdepCXX_TRUE@	$(AM_V_CXX)$(LIBTOOL) $(AM_V_lt) --tag=CXX $(AM_LIBTOOLFLAGS) $(LIBTOOLFLAGS) --mode=compile $(CXX) $(DEFS) $(DEFAULT_INCLUDES) $(INCLUDES) $(fvm_medcoupling_la_CPPFLAGS) $(CPPFLAGS) $(AM_CXXFLAGS) $(CXXFLAGS) -MT fvm_medcoupling_la-fvm_to_medcoupling.lo -MD -MP -MF $(DEPDIR)/fvm_medcoupling_la-fvm_to_medcoupling.Tpo -c -o fvm_medcoupling_la-fvm_to_medcoupling.lo `test -f 'fvm_to_medcoupling.cxx' || echo '$(srcdir)/'`fvm_to_medcoupling.cxx
@am__fastdepCXX_TRUE@	$(AM_V_at)$(am__mv) $(DEPDIR)/fvm_medcoupling_la-fvm_to_medcoupling.Tpo $(DEPDIR)/fvm_medcoupling_la-fvm_to_medcoupling.Plo
@am__fastdepCXX_FALSE@	$(AM_V_CXX) @AM_BACKSLASH@
@AMDEP_TRUE@@am__fastdepCXX_FALSE@	source='fvm_to_medcoupling.cxx' object='fvm_medcoupling_la-fvm_to_medcoupling.lo' libtool=yes @AMDEPBACKSLASH@
@AMDEP_TRUE@@am__fastdepCXX_FALSE@	DEPDIR=$(DEPDIR) $(CXXDEPMODE) $(depcomp) @AMDEPBACKSLASH@
@am__fastdepCXX_FALSE@	$(LIBTOOL) $(AM_V_lt) --tag=CXX $(AM_LIBTOOLFLAGS) $(LIBTOOLFLAGS) --mode=compile $(CXX) $(DEFS) $(DEFAULT_INCLUDES) $(INCLUDES) $(fvm_medcoupling_la_CPPFLAGS) $(CPPFLAGS) $(AM_CXXFLAGS) $(CXXFLAGS) -c -o fvm_medcoupling_la-fvm_to_medcoupling.lo `test -f 'fvm_to_medcoupling.cxx' || echo '$(srcdir)/'`fvm_to_medcoupling.cxx

libfvm_catalyst_la-fvm_to_catalyst.lo: fvm_to_catalyst.cxx
@am__fastdepCXX_TRUE@	$(AM_V_CXX)$(LIBTOOL) $(AM_V_lt) --tag=CXX $(AM_LIBTOOLFLAGS) $(LIBTOOLFLAGS) --mode=compile $(CXX) $(DEFS) $(DEFAULT_INCLUDES) $(INCLUDES) $(libfvm_catalyst_la_CPPFLAGS) $(CPPFLAGS) $(AM_CXXFLAGS) $(CXXFLAGS) -MT libfvm_catalyst_la-fvm_to_catalyst.lo -MD -MP -MF $(DEPDIR)/libfvm_catalyst_la-fvm_to_catalyst.Tpo -c -o libfvm_catalyst_la-fvm_to_catalyst.lo `test -f 'fvm_to_catalyst.cxx' || echo '$(srcdir)/'`fvm_to_catalyst.cxx
@am__fastdepCXX_TRUE@	$(AM_V_at)$(am__mv) $(DEPDIR)/libfvm_catalyst_la-fvm_to_catalyst.Tpo $(DEPDIR)/libfvm_catalyst_la-fvm_to_catalyst.Plo
@am__fastdepCXX_FALSE@	$(AM_V_CXX) @AM_BACKSLASH@
@AMDEP_TRUE@@am__fastdepCXX_FALSE@	source='fvm_to_catalyst.cxx' object='libfvm_catalyst_la-fvm_to_catalyst.lo' libtool=yes @AMDEPBACKSLASH@
@AMDEP_TRUE@@am__fastdepCXX_FALSE@	DEPDIR=$(DEPDIR) $(CXXDEPMODE) $(depcomp) @AMDEPBACKSLASH@
@am__fastdepCXX_FALSE@	$(LIBTOOL) $(AM_V_lt) --tag=CXX $(AM_LIBTOOLFLAGS) $(LIBTOOLFLAGS) --mode=compile $(CXX) $(DEFS) $(DEFAULT_INCLUDES) $(INCLUDES) $(libfvm_catalyst_la_CPPFLAGS) $(CPPFLAGS) $(AM_CXXFLAGS) $(CXXFLAGS) -c -o libfvm_catalyst_la-fvm_to_catalyst.lo `test -f 'fvm_to_catalyst.cxx' || echo '$(srcdir)/'`fvm_to_catalyst.cxx

mostlyclean-libtool:
	-rm -f *.lo

clean-libtool:
	-rm -rf .libs _libs
install-pkgincludeHEADERS: $(pkginclude_HEADERS)
	@$(NORMAL_INSTALL)
	test -z "$(pkgincludedir)" || $(MKDIR_P) "$(DESTDIR)$(pkgincludedir)"
	@list='$(pkginclude_HEADERS)'; test -n "$(pkgincludedir)" || list=; \
	for p in $$list; do \
	  if test -f "$$p"; then d=; else d="$(srcdir)/"; fi; \
	  echo "$$d$$p"; \
	done | $(am__base_list) | \
	while read files; do \
	  echo " $(INSTALL_HEADER) $$files '$(DESTDIR)$(pkgincludedir)'"; \
	  $(INSTALL_HEADER) $$files "$(DESTDIR)$(pkgincludedir)" || exit $$?; \
	done

uninstall-pkgincludeHEADERS:
	@$(NORMAL_UNINSTALL)
	@list='$(pkginclude_HEADERS)'; test -n "$(pkgincludedir)" || list=; \
	files=`for p in $$list; do echo $$p; done | sed -e 's|^.*/||'`; \
	test -n "$$files" || exit 0; \
	echo " ( cd '$(DESTDIR)$(pkgincludedir)' && rm -f" $$files ")"; \
	cd "$(DESTDIR)$(pkgincludedir)" && rm -f $$files

ID: $(HEADERS) $(SOURCES) $(LISP) $(TAGS_FILES)
	list='$(SOURCES) $(HEADERS) $(LISP) $(TAGS_FILES)'; \
	unique=`for i in $$list; do \
	    if test -f "$$i"; then echo $$i; else echo $(srcdir)/$$i; fi; \
	  done | \
	  $(AWK) '{ files[$$0] = 1; nonempty = 1; } \
	      END { if (nonempty) { for (i in files) print i; }; }'`; \
	mkid -fID $$unique
tags: TAGS

TAGS:  $(HEADERS) $(SOURCES)  $(TAGS_DEPENDENCIES) \
		$(TAGS_FILES) $(LISP)
	set x; \
	here=`pwd`; \
	list='$(SOURCES) $(HEADERS)  $(LISP) $(TAGS_FILES)'; \
	unique=`for i in $$list; do \
	    if test -f "$$i"; then echo $$i; else echo $(srcdir)/$$i; fi; \
	  done | \
	  $(AWK) '{ files[$$0] = 1; nonempty = 1; } \
	      END { if (nonempty) { for (i in files) print i; }; }'`; \
	shift; \
	if test -z "$(ETAGS_ARGS)$$*$$unique"; then :; else \
	  test -n "$$unique" || unique=$$empty_fix; \
	  if test $$# -gt 0; then \
	    $(ETAGS) $(ETAGSFLAGS) $(AM_ETAGSFLAGS) $(ETAGS_ARGS) \
	      "$$@" $$unique; \
	  else \
	    $(ETAGS) $(ETAGSFLAGS) $(AM_ETAGSFLAGS) $(ETAGS_ARGS) \
	      $$unique; \
	  fi; \
	fi
ctags: CTAGS
CTAGS:  $(HEADERS) $(SOURCES)  $(TAGS_DEPENDENCIES) \
		$(TAGS_FILES) $(LISP)
	list='$(SOURCES) $(HEADERS)  $(LISP) $(TAGS_FILES)'; \
	unique=`for i in $$list; do \
	    if test -f "$$i"; then echo $$i; else echo $(srcdir)/$$i; fi; \
	  done | \
	  $(AWK) '{ files[$$0] = 1; nonempty = 1; } \
	      END { if (nonempty) { for (i in files) print i; }; }'`; \
	test -z "$(CTAGS_ARGS)$$unique" \
	  || $(CTAGS) $(CTAGSFLAGS) $(AM_CTAGSFLAGS) $(CTAGS_ARGS) \
	     $$unique

GTAGS:
	here=`$(am__cd) $(top_builddir) && pwd` \
	  && $(am__cd) $(top_srcdir) \
	  && gtags -i $(GTAGS_ARGS) "$$here"

distclean-tags:
	-rm -f TAGS ID GTAGS GRTAGS GSYMS GPATH tags

distdir: $(DISTFILES)
	@srcdirstrip=`echo "$(srcdir)" | sed 's/[].[^$$\\*]/\\\\&/g'`; \
	topsrcdirstrip=`echo "$(top_srcdir)" | sed 's/[].[^$$\\*]/\\\\&/g'`; \
	list='$(DISTFILES)'; \
	  dist_files=`for file in $$list; do echo $$file; done | \
	  sed -e "s|^$$srcdirstrip/||;t" \
	      -e "s|^$$topsrcdirstrip/|$(top_builddir)/|;t"`; \
	case $$dist_files in \
	  */*) $(MKDIR_P) `echo "$$dist_files" | \
			   sed '/\//!d;s|^|$(distdir)/|;s,/[^/]*$$,,' | \
			   sort -u` ;; \
	esac; \
	for file in $$dist_files; do \
	  if test -f $$file || test -d $$file; then d=.; else d=$(srcdir); fi; \
	  if test -d $$d/$$file; then \
	    dir=`echo "/$$file" | sed -e 's,/[^/]*$$,,'`; \
	    if test -d "$(distdir)/$$file"; then \
	      find "$(distdir)/$$file" -type d ! -perm -700 -exec chmod u+rwx {} \;; \
	    fi; \
	    if test -d $(srcdir)/$$file && test $$d != $(srcdir); then \
	      cp -fpR $(srcdir)/$$file "$(distdir)$$dir" || exit 1; \
	      find "$(distdir)/$$file" -type d ! -perm -700 -exec chmod u+rwx {} \;; \
	    fi; \
	    cp -fpR $$d/$$file "$(distdir)$$dir" || exit 1; \
	  else \
	    test -f "$(distdir)/$$file" \
	    || cp -p $$d/$$file "$(distdir)/$$file" \
	    || exit 1; \
	  fi; \
	done
check-am: all-am
check: check-am
all-am: Makefile $(LTLIBRARIES) $(HEADERS)
installdirs:
	for dir in "$(DESTDIR)$(libdir)" "$(DESTDIR)$(pkglibdir)" "$(DESTDIR)$(pkgincludedir)"; do \
	  test -z "$$dir" || $(MKDIR_P) "$$dir"; \
	done
install: install-am
install-exec: install-exec-am
install-data: install-data-am
uninstall: uninstall-am

install-am: all-am
	@$(MAKE) $(AM_MAKEFLAGS) install-exec-am install-data-am

installcheck: installcheck-am
install-strip:
	$(MAKE) $(AM_MAKEFLAGS) INSTALL_PROGRAM="$(INSTALL_STRIP_PROGRAM)" \
	  install_sh_PROGRAM="$(INSTALL_STRIP_PROGRAM)" INSTALL_STRIP_FLAG=-s \
	  `test -z '$(STRIP)' || \
	    echo "INSTALL_PROGRAM_ENV=STRIPPROG='$(STRIP)'"` install
mostlyclean-generic:

clean-generic:

distclean-generic:
	-test -z "$(CONFIG_CLEAN_FILES)" || rm -f $(CONFIG_CLEAN_FILES)
	-test . = "$(srcdir)" || test -z "$(CONFIG_CLEAN_VPATH_FILES)" || rm -f $(CONFIG_CLEAN_VPATH_FILES)

maintainer-clean-generic:
	@echo "This command is intended for maintainers to use"
	@echo "it deletes files that may require special tools to rebuild."
clean: clean-am

clean-am: clean-generic clean-libLTLIBRARIES clean-libtool \
	clean-noinstLTLIBRARIES clean-pkglibLTLIBRARIES mostlyclean-am

distclean: distclean-am
	-rm -rf ./$(DEPDIR)
	-rm -f Makefile
distclean-am: clean-am distclean-compile distclean-generic \
	distclean-tags

dvi: dvi-am

dvi-am:

html: html-am

html-am:

info: info-am

info-am:

install-data-am: install-pkgincludeHEADERS

install-dvi: install-dvi-am

install-dvi-am:

install-exec-am: install-libLTLIBRARIES install-pkglibLTLIBRARIES

install-html: install-html-am

install-html-am:

install-info: install-info-am

install-info-am:

install-man:

install-pdf: install-pdf-am

install-pdf-am:

install-ps: install-ps-am

install-ps-am:

installcheck-am:

maintainer-clean: maintainer-clean-am
	-rm -rf ./$(DEPDIR)
	-rm -f Makefile
maintainer-clean-am: distclean-am maintainer-clean-generic

mostlyclean: mostlyclean-am

mostlyclean-am: mostlyclean-compile mostlyclean-generic \
	mostlyclean-libtool

pdf: pdf-am

pdf-am:

ps: ps-am

ps-am:

uninstall-am: uninstall-libLTLIBRARIES uninstall-pkgincludeHEADERS \
	uninstall-pkglibLTLIBRARIES

.MAKE: install-am install-strip

.PHONY: CTAGS GTAGS all all-am check check-am clean clean-generic \
	clean-libLTLIBRARIES clean-libtool clean-noinstLTLIBRARIES \
	clean-pkglibLTLIBRARIES ctags distclean distclean-compile \
	distclean-generic distclean-libtool distclean-tags distdir dvi \
	dvi-am html html-am info info-am install install-am \
	install-data install-data-am install-dvi install-dvi-am \
	install-exec install-exec-am install-html install-html-am \
	install-info install-info-am install-libLTLIBRARIES \
	install-man install-pdf install-pdf-am \
	install-pkgincludeHEADERS install-pkglibLTLIBRARIES install-ps \
	install-ps-am install-strip installcheck installcheck-am \
	installdirs maintainer-clean maintainer-clean-generic \
	mostlyclean mostlyclean-compile mostlyclean-generic \
	mostlyclean-libtool pdf pdf-am ps ps-am tags uninstall \
	uninstall-am uninstall-libLTLIBRARIES \
	uninstall-pkgincludeHEADERS uninstall-pkglibLTLIBRARIES


# Tell versions [3.59,3.63) of GNU make to not export all variables.
# Otherwise a system limit (for SysV at least) may be exceeded.
.NOEXPORT:
